
[2025-07-07 12:25:53] Using a container with base call: singularity exec /fs/ess/PAS0471/containers/clipkit_2.3.0--696fa0f33ad2b776.sif

[2025-07-07 12:25:53] Starting script clipkit.sh, version 2025-01-04
==========================================================================
All options passed to this script:        -i data/WBNAD4Aligned.fasta -o results/NAD4/clipkit
Input file:                               data/WBNAD4Aligned.fasta
Output file:                              results/NAD4/clipkit/WBNAD4Aligned.fasta

[2025-07-07 12:25:53] Listing the input file(s):
-rw-r--r-- 1 jelmer PAS0471 7.6K Jul  6 16:45 data/WBNAD4Aligned.fasta

[2025-07-07 12:25:53] SLURM job information:
Account (project):                        pas0471
Job ID:                                   1908861
Job name:                                 clipkit
Memory (GB per node):                     4
CPUs (on node):                           1
Time limit (minutes):                     60
==========================================================================


[2025-07-07 12:25:53] Running ClipKIT...
INFO:    gocryptfs not found, will not be able to use gocryptfs

-------------
| Arguments |
-------------
Input file: data/WBNAD4Aligned.fasta (format: fasta)
Output file: results/NAD4/clipkit/WBNAD4Aligned.fasta (format: fasta)
Sequence type: Nucleotides
Gaps threshold: 0.9444
Gap characters: ['-', '?', '*', 'X', 'x', 'N', 'n']
Trimming mode: smart-gap
Create complementary output: False
Process as codons: False
Create log file: False


------------------------
| Writing output files |
------------------------
Trimmed alignment: results/NAD4/clipkit/WBNAD4Aligned.fasta
Complement file: False
Log file: False


---------------------
| Output Statistics |
---------------------
Original length: 403
Number of sites kept: 402
Number of sites trimmed: 1
Percentage of alignment trimmed: 0.248%

Execution time: 0.037s


# Ran the command: 
singularity exec /fs/ess/PAS0471/containers/clipkit_2.3.0--696fa0f33ad2b776.sif clipkit data/WBNAD4Aligned.fasta --output results/NAD4/clipkit/WBNAD4Aligned.fasta --mode smart-gap
        
# Run stats by /usr/bin/time:
        Time: 0:02.25   CPU: 35%    Max mem: 45384 K    Exit status: 0 


[2025-07-07 12:25:55] Listing files in the output dir:
drwxr-xr-x 2 jelmer PAS0471 4.0K Jul  7 12:25 /fs/ess/PAS0471/jelmer/assist/2025-02_ferd-haps/results/NAD4/clipkit/logs
-rw-r--r-- 1 jelmer PAS0471 7.6K Jul  7 12:25 /fs/ess/PAS0471/jelmer/assist/2025-02_ferd-haps/results/NAD4/clipkit/WBNAD4Aligned.fasta

======================================================================
[2025-07-07 12:25:55] Versions used:
INFO:    gocryptfs not found, will not be able to use gocryptfs

[2025-07-07 12:25:55] Version of this shell script:
clipkit.sh by Jelmer Poelstra, version 2025-01-04 (https://github.com/mcic-osu/mcic-scripts)

[2025-07-07 12:25:55] Version of ClipKIT:
clipkit 2.3.0

JobID                                                           AllocTRES    Elapsed    CPUTime 
------------ ------------------------------------------------------------ ---------- ---------- 
1908861                                     billing=1,cpu=1,mem=4G,node=1   00:00:04   00:00:04 

[2025-07-07 12:25:56] Successfully completed script clipkit.sh

